18
# CELL(abcABC):   37.79452    37.79452    37.79452    90.00000    90.00000    90.00000  Step:          65  Bead:       0 positions{angstrom}  cell{atomic_unit}
       H  1.03166e+01  9.69624e+00  8.48086e+00
       H  1.16518e+01  1.03798e+01  8.91066e+00
       H  1.02053e+01  1.02957e+01  1.15315e+01
       H  1.01634e+01  8.84378e+00  1.10173e+01
       H  1.21472e+01  9.73428e+00  1.08541e+01
       H  1.35146e+01  9.36733e+00  1.01454e+01
       H  8.33830e+00  8.83678e+00  9.58520e+00
       H  8.95606e+00  7.45388e+00  9.10393e+00
       H  6.70392e+00  9.93045e+00  1.07839e+01
       H  7.85168e+00  1.07832e+01  1.01259e+01
       H  9.92462e+00  1.13643e+01  9.54203e+00
       H  9.36516e+00  1.26395e+01  1.03431e+01
       O  1.07902e+01  1.05586e+01  8.43949e+00
       O  1.06324e+01  9.41976e+00  1.16673e+01
       O  1.28295e+01  1.00541e+01  1.01931e+01
       O  9.19700e+00  8.33942e+00  9.42248e+00
       O  7.19349e+00  1.00492e+01  9.95235e+00
       O  9.33554e+00  1.16686e+01  1.03239e+01
